94

P       -1.966415   -0.020865   -0.096528
P        1.962518    0.104981   -0.032285
C        2.549799   -0.372591    1.695115
C        2.041782    1.953597    0.019848
C        3.464431   -0.239508   -1.059514
C       -2.063993    0.560827    1.700068
C       -2.991533    1.267727   -0.954089
C       -3.166641   -1.422718   -0.031536
C       -1.007814    1.494686    2.228518
C        1.567643   -1.101563    2.573062
C        1.793396   -2.456300    2.905947
C        0.423164   -0.451400    3.089499
C       -0.449346   -1.148473    3.934039
C       -0.226065   -2.481010    4.254635
C        0.890203   -3.123809    3.737397
C       -1.193544    2.895413    2.153246
C       -0.234260    3.753339    2.696762
C        0.902506    3.265167    3.326093
C        1.085872    1.894026    3.410760
C        0.158716    0.999003    2.861242
Rh        0.126030   -0.995073   -0.963293
C        3.189743    2.627664    0.460121
C        3.256522    4.016425    0.416244
C        2.175717    4.755025   -0.069253
C        0.964815    2.703407   -0.451148
C        1.028587    4.096438   -0.499289
C        4.096268   -1.487158   -0.976173
C        5.134149   -1.824498   -1.839178
C        5.553033   -0.923942   -2.817829
C        3.888270    0.654046   -2.052233
C        4.923332    0.313648   -2.921811
C       -4.308263    1.560103   -0.571051
C       -5.021006    2.577575   -1.196110
C       -4.428418    3.322885   -2.217170
C       -2.418821    2.006115   -1.993299
C       -3.128018    3.032787   -2.619020
C       -3.038771   -2.415863    0.951243
C       -3.826752   -3.562329    0.915008
C       -4.748313   -3.752098   -0.113100
C       -4.086263   -1.633312   -1.069092
C       -4.869180   -2.785452   -1.108153
C        0.189756   -2.602068    0.050838
O        0.162727   -3.655447    0.523660
C        0.081716   -1.224109   -3.300265
C       -0.671415   -0.275441   -4.205724
C       -0.672290   -2.197579   -2.598499
C        1.461072   -1.566357   -3.801945
C       -2.398148    3.511910    1.508048
C        2.958900   -3.230914    2.365671
H       -2.030126   -0.384657    2.256785
H       -3.073366    0.975857    1.860215
H        2.878366    0.565622    2.167267
H        3.459382   -0.971708    1.552560
H       -0.395598    4.834601    2.626132
H        1.635938    3.951338    3.759280
H        1.955077    1.490328    3.941158
H        1.074565   -4.175537    3.979153
H       -1.303910   -0.615379    4.364902
H       -0.913383   -3.012677    4.918973
H        4.058419    2.059942    0.814822
H        4.162646    4.528174    0.754297
H        2.232540    5.846903   -0.110117
H        0.062955    2.180013   -0.784366
H        0.170504    4.664005   -0.875076
H        3.757948   -2.222223   -0.237590
H        5.615104   -2.803185   -1.750676
H        6.366418   -1.188760   -3.499411
H        3.401820    1.630404   -2.154128
H        5.240069    1.027280   -3.688528
H       -4.785875    0.981368    0.228415
H       -6.047360    2.794587   -0.885093
H       -4.988303    4.126385   -2.704700
H       -1.397971    1.768115   -2.315187
H       -2.661306    3.603591   -3.427285
H       -2.292139   -2.318532    1.748635
H       -3.709025   -4.320325    1.694924
H       -5.363984   -4.655627   -0.142970
H       -4.194510   -0.886847   -1.864133
H       -5.581169   -2.926249   -1.927096
H        0.304806    0.076203   -2.213147
H       -0.248385   -3.203773   -2.495387
H       -1.769684   -2.166179   -2.655565
H       -0.850809   -0.774120   -5.175948
H       -1.651086    0.001096   -3.784175
H       -0.104869    0.649028   -4.410175
H        1.394365   -1.937254   -4.842908
H        2.125078   -0.685564   -3.813243
H        1.942925   -2.338915   -3.183433
H       -2.436761    4.592800    1.709391
H       -3.344371    3.074105    1.867987
H       -2.395356    3.380654    0.412778
H        3.927569   -2.733152    2.538061
H        2.861211   -3.395583    1.277703
H        3.013727   -4.225957    2.830471
