96

P       -1.879800    0.288754   -0.013246
P        1.971037   -0.086038    0.044481
C        2.435201   -0.483199    1.830612
C        2.319604    1.716798   -0.133188
C        3.432699   -0.787324   -0.848714
C       -1.796302    1.231740    1.633255
C       -2.723097    1.556628   -1.072419
C       -3.264934   -0.828297    0.485905
C       -0.588180    2.024340    2.039529
C        1.350867   -0.925674    2.774333
C        1.324315   -2.255343    3.257281
C        0.383234   -0.007429    3.234820
C       -0.587786   -0.418282    4.155477
C       -0.637253   -1.733151    4.598484
C        0.314259   -2.638945    4.145143
C       -0.487478    3.400958    1.731853
C        0.594545    4.137011    2.219862
C        1.573776    3.550777    3.012172
C        1.479302    2.201093    3.315264
C        0.421158    1.425188    2.827057
Rh        0.031570   -1.043969   -1.082320
C        3.519717    2.290327    0.309920
C        3.802948    3.626618    0.047581
C        2.891909    4.410167   -0.662814
C        1.410487    2.514780   -0.828043
C        1.693366    3.853652   -1.097256
C        3.818171   -2.114542   -0.615133
C        4.837951   -2.703762   -1.355082
C        5.483200   -1.981515   -2.357216
C        4.080615   -0.075001   -1.865318
C        5.096838   -0.669008   -2.611479
C       -3.909297    2.196704   -0.683512
C       -4.468474    3.200187   -1.468632
C       -3.846026    3.589622   -2.654834
C       -2.119704    1.948073   -2.271239
C       -2.670682    2.961321   -3.055335
C       -2.983189   -1.756140    1.501045
C       -3.928911   -2.697069    1.889816
C       -5.171221   -2.743144    1.256096
C       -4.510487   -0.886680   -0.146646
C       -5.454853   -1.839862    0.236843
C        0.279306   -2.695298   -0.163654
O        0.500886   -3.729638    0.299915
C       -1.240638   -2.276996   -2.466577
C       -0.314484   -3.094402   -3.357337
C       -2.112256   -1.382198   -3.332797
C       -2.156170   -3.242054   -1.727100
C        0.675735   -0.246817   -2.694084
O        1.116649    0.194083   -3.665398
C       -1.521555    4.108248    0.910302
C        2.365132   -3.267992    2.880327
H       -1.966636    0.430594    2.363157
H       -2.700553    1.861462    1.664011
H        2.929035    0.425627    2.208166
H        3.220245   -1.247933    1.760480
H        0.661497    5.202200    1.972855
H        2.403251    4.149604    3.399436
H        2.226562    1.726811    3.961363
H        0.295874   -3.672539    4.506106
H       -1.304964    0.318708    4.533024
H       -1.404501   -2.047952    5.311883
H        4.259880    1.679244    0.839974
H        4.747651    4.058890    0.390787
H        3.121801    5.458096   -0.877440
H        0.469071    2.072947   -1.170779
H        0.967922    4.458010   -1.651637
H        3.305935   -2.713523    0.145434
H        5.122528   -3.740203   -1.151887
H        6.281666   -2.445285   -2.943315
H        3.789329    0.956333   -2.088540
H        5.589225   -0.095074   -3.401882
H       -4.409558    1.913535    0.249982
H       -5.395194    3.687015   -1.150341
H       -4.283110    4.382362   -3.268924
H       -1.200630    1.446822   -2.592314
H       -2.177754    3.254004   -3.986862
H       -1.996072   -1.762105    1.981484
H       -3.687130   -3.408405    2.685238
H       -5.914136   -3.488809    1.553243
H       -4.750506   -0.192215   -0.957684
H       -6.422176   -1.875021   -0.273163
H       -2.814386   -0.765923   -2.745050
H       -2.733711   -2.013437   -4.002704
H       -1.534242   -0.705756   -3.984527
H       -0.923350   -3.736899   -4.029026
H        0.331202   -2.475112   -4.000992
H        0.342621   -3.763832   -2.777436
H       -2.771038   -3.793662   -2.469092
H       -1.610092   -4.001753   -1.146180
H       -2.856592   -2.734633   -1.049538
H       -1.559323    3.738525   -0.128552
H       -1.316359    5.188290    0.867362
H       -2.539567    3.981138    1.317344
H        2.323868   -3.533066    1.811173
H        2.216778   -4.202778    3.439888
H        3.388011   -2.916671    3.097815
