94

P       -1.984894    0.142083   -0.140015
P        2.027987    0.049323   -0.056399
C        2.525525   -0.212590    1.742677
C        2.356192    1.858879   -0.281653
C        3.459106   -0.631465   -1.006931
C       -2.022307    1.046385    1.520982
C       -2.905914    1.328701   -1.226611
C       -3.289087   -1.129466    0.177652
C       -0.887992    1.961720    1.899331
C        1.458041   -0.743849    2.662636
C        1.536843   -2.070439    3.142537
C        0.375549    0.068458    3.073662
C       -0.557953   -0.431807    3.989648
C       -0.468421   -1.731821    4.469597
C        0.569957   -2.543586    4.033679
C       -0.953437    3.340029    1.584966
C        0.061378    4.199266    2.013497
C        1.138821    3.736307    2.756031
C        1.212430    2.386329    3.061693
C        0.228020    1.486366    2.632580
Rh        0.040659   -0.940412   -0.846070
C        3.601243    2.419863    0.036482
C        3.842337    3.773545   -0.173617
C        2.842331    4.587651   -0.709358
C        1.364583    2.682507   -0.814210
C        1.604202    4.040425   -1.029005
C        4.112887   -1.812730   -0.633839
C        5.056688   -2.405189   -1.470197
C        5.358454   -1.836248   -2.705040
C        3.773208   -0.067272   -2.253660
C        4.709731   -0.664442   -3.092873
C       -4.190032    1.791817   -0.905499
C       -4.830441    2.727357   -1.710741
C       -4.197058    3.217548   -2.854127
C       -2.292112    1.812147   -2.384651
C       -2.928787    2.755913   -3.192410
C       -3.191699   -1.964000    1.301330
C       -4.054931   -3.043334    1.466706
C       -5.029443   -3.319390    0.509559
C       -4.269006   -1.423299   -0.781159
C       -5.130485   -2.505128   -0.615893
C       -0.096140   -2.444838    0.299280
O       -0.219806   -3.434315    0.883434
C       -0.116308   -2.396683   -2.568625
C        0.967078   -3.445779   -2.506326
C        0.192299   -1.137038   -3.125283
C       -1.514189   -2.944796   -2.698048
C       -2.085944    3.930207    0.799129
C        2.610603   -3.017606    2.695889
H       -2.079487    0.216329    2.236851
H       -2.989143    1.573119    1.587743
H        2.884945    0.767569    2.089134
H        3.404775   -0.871381    1.745244
H       -0.008270    5.262935    1.760573
H        1.914689    4.426586    3.099372
H        2.037467    2.009223    3.675618
H        0.642790   -3.575835    4.391175
H       -1.357065    0.229708    4.341666
H       -1.202690   -2.108353    5.187630
H        4.401502    1.784379    0.434928
H        4.820438    4.197370    0.073380
H        3.034542    5.651330   -0.879049
H        0.389778    2.246197   -1.060454
H        0.810765    4.670921   -1.444300
H        3.873666   -2.298919    0.316975
H        5.556794   -3.324989   -1.152351
H        6.095869   -2.303549   -3.363786
H        3.273438    0.854713   -2.574173
H        4.938779   -0.205425   -4.059503
H       -4.700069    1.413061   -0.011898
H       -5.831600    3.080168   -1.445466
H       -4.699449    3.957120   -3.484492
H       -1.290866    1.450333   -2.645195
H       -2.429403    3.128954   -4.091393
H       -2.412190   -1.796369    2.054570
H       -3.955938   -3.679959    2.350796
H       -5.704569   -4.170219    0.638521
H       -4.360301   -0.802225   -1.678708
H       -5.887677   -2.713121   -1.378000
H        0.218643    0.132286   -2.090052
H       -0.587062   -0.622155   -3.703711
H        1.214750   -0.963540   -3.489179
H        0.975286   -4.031888   -3.446506
H        1.967429   -3.001351   -2.373672
H        0.801296   -4.165807   -1.688270
H       -1.596546   -3.581414   -3.601438
H       -1.792847   -3.574759   -1.835431
H       -2.264810   -2.140973   -2.775069
H       -2.031100    5.029027    0.802883
H       -3.074587    3.647313    1.198192
H       -2.074668    3.603293   -0.254843
H        3.628436   -2.624591    2.858383
H        2.514152   -3.252332    1.620439
H        2.537573   -3.972600    3.236037
