96

P       -2.110034   -0.137514   -0.066805
P        2.134203    0.072153    0.050652
C        2.631643   -0.169758    1.855868
C        2.260045    1.902253   -0.107488
C        3.601879   -0.514657   -0.893558
C       -2.110776    0.536621    1.690039
C       -3.111961    1.080990   -1.020021
C       -3.310255   -1.531550    0.077846
C       -1.129190    1.610291    2.096217
C        1.633437   -0.777002    2.806921
C        1.888172   -2.057344    3.352318
C        0.453038   -0.095243    3.192997
C       -0.405920   -0.680866    4.132854
C       -0.147263   -1.934539    4.668614
C        0.994584   -2.614982    4.270700
C       -1.453793    2.975690    1.912774
C       -0.557242    3.964195    2.330833
C        0.651238    3.643089    2.930182
C        0.962842    2.308824    3.140938
C        0.095234    1.284121    2.742049
Rh        0.080765   -0.820197   -0.505142
C        3.458089    2.572524    0.178625
C        3.527602    3.959363    0.092517
C        2.401106    4.692426   -0.284497
C        1.137810    2.644900   -0.472048
C        1.207906    4.033793   -0.562603
C        4.088268   -1.809654   -0.668413
C        5.092173   -2.344457   -1.469540
C        5.618469   -1.598144   -2.523173
C        4.125020    0.220346   -1.965319
C        5.127816   -0.318433   -2.769532
C       -4.473406    1.265791   -0.738873
C       -5.211582    2.227164   -1.420052
C       -4.598560    3.016865   -2.394219
C       -2.506454    1.866781   -2.006994
C       -3.250570    2.833220   -2.686720
C       -3.484215   -2.279851    1.248268
C       -4.311412   -3.402587    1.257200
C       -4.971582   -3.801216    0.099426
C       -3.971315   -1.952289   -1.086741
C       -4.794771   -3.072595   -1.076423
C       -0.042180   -2.279975    0.786651
O       -0.111650   -3.374168    1.143147
C        0.278820   -1.329284   -3.384481
C        1.561195   -1.278186   -4.210500
C       -0.937021   -1.069453   -4.272655
C        0.151552   -2.708453   -2.740010
C        0.322781   -0.127333   -2.378591
O        0.505700    0.980238   -2.840354
C        3.076425   -2.880168    2.950004
C       -2.742817    3.429472    1.294584
H       -1.903439   -0.369011    2.274913
H       -3.150033    0.832103    1.921322
H        2.929970    0.832618    2.198810
H        3.555740   -0.764471    1.834158
H       -0.827790    5.015386    2.182663
H        1.338761    4.430424    3.252267
H        1.883221    2.043516    3.672206
H        1.207289   -3.608025    4.679621
H       -1.285719   -0.116151    4.460088
H       -0.827452   -2.372938    5.404426
H        4.352712    2.005900    0.464521
H        4.467747    4.472681    0.315959
H        2.457913    5.782635   -0.357960
H        0.201102    2.120787   -0.674460
H        0.316019    4.600959   -0.849120
H        3.663707   -2.419485    0.136983
H        5.461856   -3.355226   -1.273385
H        6.405628   -2.017924   -3.155895
H        3.740412    1.221796   -2.182331
H        5.525462    0.271375   -3.600669
H       -4.962153    0.645983    0.022213
H       -6.273279    2.361827   -1.192685
H       -5.179351    3.773128   -2.930588
H       -1.447232    1.736007   -2.252109
H       -2.766023    3.441840   -3.455583
H       -2.962067   -2.010954    2.172323
H       -4.434709   -3.971493    2.183312
H       -5.618803   -4.682820    0.109551
H       -3.842447   -1.387499   -2.017368
H       -5.303385   -3.379146   -1.995213
H       -1.867620   -1.054107   -3.677169
H       -1.034010   -1.862260   -5.035136
H       -0.847808   -0.098516   -4.785177
H        1.533208   -2.045771   -5.003960
H        1.686801   -0.290007   -4.680079
H        2.447538   -1.473044   -3.581012
H        0.113736   -3.482368   -3.528315
H        1.018153   -2.946970   -2.098058
H       -0.773995   -2.814554   -2.144908
H        3.157026   -3.780139    3.576420
H        4.032214   -2.337065    3.030789
H        2.988103   -3.229408    1.905485
H       -2.725726    3.346804    0.194714
H       -2.937234    4.484765    1.537765
H       -3.612548    2.845343    1.636179
