96

P       -1.978188    0.174071   -0.027489
P        1.979339    0.185803    0.117929
C        2.372419    0.678033    1.892704
C        2.198130    1.765747   -0.811569
C        3.497530   -0.722568   -0.412350
C       -2.123292    1.676187    1.105622
C       -2.977644    0.716513   -1.487204
C       -3.149452   -0.984059    0.804208
C       -1.015762    2.694961    1.097811
C        1.279008    0.549076    2.919777
C        1.335172   -0.483309    3.884624
C        0.210714    1.473230    2.968297
C       -0.735589    1.387800    3.996872
C       -0.675874    0.374943    4.944260
C        0.348115   -0.560793    4.871285
C       -1.080328    3.805892    0.225789
C       -0.081884    4.781568    0.275776
C        0.975077    4.693216    1.172032
C        1.046470    3.601787    2.024729
C        0.078419    2.590830    1.989852
Rh        0.109320   -1.092096   -0.402521
C        3.378466    2.513632   -0.697130
C        3.559290    3.667238   -1.452597
C        2.563792    4.087633   -2.336501
C        1.207798    2.197855   -1.693546
C        1.388486    3.353163   -2.454097
C        4.123597   -1.655911    0.421838
C        5.166452   -2.449438   -0.051081
C        5.592708   -2.332615   -1.371455
C        3.929621   -0.618135   -1.742322
C        4.966931   -1.416578   -2.215065
C       -4.286937    1.198404   -1.343140
C       -4.994046    1.671520   -2.442849
C       -4.404255    1.667340   -3.708220
C       -2.407262    0.694537   -2.762492
C       -3.113989    1.172243   -3.867550
C       -3.001985   -1.259657    2.171775
C       -3.771753   -2.242060    2.786825
C       -4.691069   -2.982327    2.045412
C       -4.062768   -1.747415    0.064641
C       -4.827129   -2.736079    0.681694
C        0.061872   -2.132698    1.245963
O        0.006205   -2.892626    2.109536
C        0.140268   -3.895995   -2.368638
C       -0.761514   -5.086512   -2.673852
C       -0.703173   -2.748881   -1.826277
C        1.258697   -4.298006   -1.421833
C        0.438920   -1.168575   -2.231047
O        0.777230   -1.054877   -3.345162
C       -2.191989    3.978537   -0.765489
C        2.424877   -1.513864    3.887861
H       -2.215895    1.229178    2.103542
H       -3.094450    2.152835    0.894514
H        2.718716    1.720208    1.825904
H        3.250852    0.088576    2.189260
H       -0.145453    5.635396   -0.407576
H        1.738668    5.475480    1.207411
H        1.857106    3.530684    2.758232
H        0.402165   -1.369116    5.607743
H       -1.524707    2.145820    4.050047
H       -1.421413    0.319138    5.742758
H        4.179540    2.176627   -0.028182
H        4.488173    4.237944   -1.360546
H        2.710611    4.990562   -2.936652
H        0.285929    1.612948   -1.785452
H        0.600489    3.675488   -3.142542
H        3.786517   -1.789379    1.454525
H        5.643276   -3.170307    0.619517
H        6.408045   -2.958631   -1.744993
H        3.440749    0.085495   -2.424523
H        5.287012   -1.321665   -3.256746
H       -4.764079    1.201156   -0.355975
H       -6.013694    2.046851   -2.314481
H       -4.959080    2.044470   -4.572290
H       -1.392866    0.305017   -2.896075
H       -2.648866    1.152400   -4.857186
H       -2.255444   -0.722627    2.770241
H       -3.641064   -2.437060    3.855360
H       -5.292840   -3.757302    2.528624
H       -4.180284   -1.571612   -1.010081
H       -5.536539   -3.318906    0.086591
H        0.597286   -3.564687   -3.321844
H       -1.272684   -3.095330   -0.944463
H       -1.457110   -2.415783   -2.561522
H       -1.218004   -5.477704   -1.746538
H       -1.582051   -4.812943   -3.357919
H       -0.196801   -5.912039   -3.139524
H        0.850483   -4.578901   -0.432970
H        1.816365   -5.165960   -1.811687
H        1.975179   -3.474200   -1.261677
H       -2.121334    4.956777   -1.263823
H       -3.190339    3.916279   -0.299696
H       -2.171537    3.204976   -1.552641
H        3.431839   -1.067022    3.950670
H        2.397732   -2.141079    2.980046
H        2.314852   -2.194269    4.744434
